/*--------------------------------*- C++ -*----------------------------------*\
  =========                 |
  \\      /  F ield         | OpenFOAM: The Open Source CFD Toolbox
   \\    /   O peration     | Website:  https://openfoam.org
    \\  /    A nd           | Version:  9
     \\/     M anipulation  |
\*---------------------------------------------------------------------------*/
FoamFile
{
    format      ascii;
    class       dictionary;
    object      blockMeshDict;
}
// * * * * * * * * * * * * * * * * * * * * * * * * * * * * * * * * * * * * * //

convertToMeters 1;

vertices
(
    (0 0 0) //vertex 0
    (0.4 0 0) //vertex 1
    (0.4 0.2 0) //vertex 2
    (0 0.2 0) //vertex 3
    (0 0 0.001) //vertex 4
    (0.4 0 0.001) //vertex 5
    (0.4 0.2 0.001) //vertex 6
    (0 0.2 0.001) //vertex 7
);

blocks
(
    hex (0 1 2 3 4 5 6 7) (10 10 1) simpleGrading (1 1 1)
);

edges
(
);

boundary
(
    up
    {
        type patch;
        faces
        (
            (3 7 6 2)
        );
    }

    right
    {
        type patch;
        faces
        (
            (2 6 5 1)
        );
    }

    left
    {
        type patch;
        faces
        (
            (0 4 7 3)
        );
    }

    down
    {
        type patch;
        faces
        (
            (1 5 4 0)
        );
    }

    frontAndBack
    {
        type empty;
        faces
        (
            (0 3 2 1)
            (4 5 6 7)
        );
    }
);

mergePatchPairs
(
);

// ************************************************************************* //