/*--------------------------------*- C++ -*----------------------------------*\
  =========                 |
  \\      /  F ield         | OpenFOAM: The Open Source CFD Toolbox
   \\    /   O peration     | Website:  https://openfoam.org
    \\  /    A nd           | Version:  9
     \\/     M anipulation  |
\*---------------------------------------------------------------------------*/
FoamFile
{
    format      ascii;
    class       dictionary;
    object      blockMeshDict;
}
// * * * * * * * * * * * * * * * * * * * * * * * * * * * * * * * * * * * * * //

convertToMeters 1;

vertices
(
    //block 1
    (0 0 0) //vertex 0
    (0.1 0 0) //vertex 1
    (0.1 0.2 0) //vertex 2
    (0 0.2 0) //vertex 3
    (0 0 0.001) //vertex 4
    (0.1 0 0.001) //vertex 5
    (0.1 0.2 0.001) //vertex 6
    (0 0.2 0.001) //vertex 7

    //block 2
    //(0.1 0 0) //vertex 1
    (0.192928932 0.092328932 0) //vertex 8
    (0.192928932 0.107071068 0) //vertex 9
    //(0.1 0.2 0) //vertex 2
    //(0.1 0 0.001) //vertex 5
    (0.192928932 0.092328932 0.001) //vertex 10
    (0.192928932 0.107071068 0.001) //vertex 11
    //(0.1 0.2 0.001) //vertex 6
    
    //block 3
    //(0.1 0 0) //vertex 1
    (0.3 0 0) //vertex 12
    (0.207071068 0.092328932 0) //vertex 13
    // (0.192928932 0.092328932 0) //vertex 8
    //(0.1 0 0.001) //vertex 5
    (0.3 0 0.001) //vertex 14
    (0.207071068 0.092328932 0.001) //vertex 15
//    (0.192928932 0.092328932 0.001) //vertex 10

    //block 4
    //(0.192928932 0.107071068 0) //vertex 9
    (0.207071068 0.107071068 0) //vertex 16
    (0.3 0.2 0) //vertex 17
    //(0.1 0.2 0) //vertex 2
    //(0.192928932 0.107071068 0.001) //vertex 11
    (0.207071068 0.107071068 0.001) //vertex 18
    (0.3 0.2 0.001) //vertex 19
    //(0.1 0.2 0.001) //vertex 6

    //block 5
    //(0.3 0 0) //vertex 12
    //(0.3 0.2 0) //vertex 17
    //(0.207071068 0.107071068 0) //vertex 16
    //(0.207071068 0.092328932 0) //vertex 13
    // (0.3 0 0.001) //vertex 14
    // (0.3 0.2 0.001) //vertex 19
    // (0.207071068 0.107071068 0.001) //vertex 18
    // (0.207071068 0.092328932 0.001) //vertex 15

    //block 6
    //(0.3 0 0) //vertex 12
    (0.4 0 0) //vertex 20
    (0.4 0.2 0) //vertex 21
    //(0.3 0.2 0) //vertex 17
    //(0.3 0 0.001) //vertex 14
    (0.4 0 0.001) //vertex 22
    (0.4 0.2 0.001) //vertex 23
    // (0.3 0.2 0.001) //vertex 19




);

blocks
(
    hex (0 1 2 3 4  5  6 7) (10 10 1) simpleGrading (1 1 1)
    hex (1 8 9 2 5 10 11 6) (10 10 1) simpleGrading (1 1 1)
    hex (1 12 13 8 5 14 15 10) (10 10 1) simpleGrading (1 1 1)
    hex (9 16 17 2 11 18 19 6) (10 10 1) simpleGrading (1 1 1)
    hex (12 17 16 13 14 19 18 15) (10 10 1) simpleGrading (1 1 1)
    hex (12 20 21 17 14 22 23 19) (10 10 1) simpleGrading (1 1 1)

);

edges
(
    arc 9 8 (0.19 0.1 0)
    arc 11 10 (0.19 0.1 0.001)

    arc 13 8 (0.2 0.09 0)
    arc 15 10 (0.2 0.09 0.001)

    arc 9 16 (0.2 0.11 0)  
    arc 11 18  (0.2 0.11 0.001)    

    arc 16 13 (0.21 0.1 0)
    arc 15 18 (0.21 0.1 0.001)

);

boundary
(
    up
    {
        type patch;
        faces
        (
            // (3 7 6 2)
            // (3 2 17 21 23 19 6 7)
            (3 2 6 7)
            (2 17 19 6)
            (17 21 23 19)
            // (7 6 19 23 21 17 2 3)

        );
    }

    right
    {
        type patch;
        faces
        (
            // (2 6 5 1)
            (20 21 23 22)
        );
    }

    left
    {
        type patch;
        faces
        (
            (0 4 7 3)
        );
    }

    down
    {
        type patch;
        faces
        (
            //(1 5 4 0)
            (0 1 5 4)
            (1 12 14 5)
            (12 20 22 14)
        );
    }

    hole
    {
        type patch;
        faces
        (
            //(1 5 4 0)
            (8 9 11 10)
            (9 16 18 11) 
            (13 16 18 15)
            (8 13 15 10)


        );
    }

    // hole 
    // {
    //     type patch;
    //     faces 
    //     {
    //         (8 9 11 10)
    //     };
    // }

    frontAndBack
    {
        type empty;
        faces
        (
            (0 3 2 1)
            (9 2 17 16)
            (1 8 9 2)
            (1 8 13 12)
            (12 17 16 13)
            (12 20 21 17)

            (4 5 6 7)
            (5 14 15 10)
            (14 19 18 15)
            (19 6 11 18)
            (14 22 23 19)
            (5 10 11 6)

        );
    }
);

mergePatchPairs
(
);

// ************************************************************************* //